$constrain
   force constant=0.5
   distance: 1, 2, 0.5
   distance: 1, 3, 0.5
   distance: 1, 4, 0.5
   angle: 2, 1, 3, 150.0
$scan
   1:   0.5,  1.4, 60
   2:   0.5,  1.4, 60
   3:   0.5,  1.4, 60
   4: 150.0, 90.0, 60
$opt
   maxcycle=5
$end


4

N          -0.00990404770994   -0.01698500657667   -0.00712107610609
H           0.00434306677482    0.00733732515324    1.00490910707310
H           0.94901246801925    0.00720047578638   -0.33083175918033
H          -0.46827248708413    0.82547620563705   -0.33095427178668


7
Generated by ABCluster
   S     -0.00005300      0.00016300     -0.16029600
   O      1.03569100      0.67843600      0.84673800
   O     -0.65363200      1.08483700     -0.82684400
   O     -1.03650700     -0.68089400      0.84382500
   O      0.65454200     -1.08234300     -0.82927300
   H     -1.68662100     -0.02308000      1.14461800
   H      1.68671800      0.02017800      1.14453900



#P HF/6-31G(d) Opt=Z-Matrix NoSymm

PES scan of ammonia, HF/6-31G(d) level
first step at d4=0.0

0 1
N1
H2  1  r2
H3  1  r3  2  a3
H4  1  r4  3  a4  1  d4

r2 0.8 10 0.1 
r3 0.81 10 0.1 
r4 0.82 10 0.1 
a3 90 40 1 
a4 90 40 1
d4 90 45 2